[TITLE]
;;Project Title/Notes
SWMM

[OPTIONS]
;;Option             Value
FLOW_UNITS           CMS
INFILTRATION         HORTON
FLOW_ROUTING         DYNWAVE
LINK_OFFSETS         DEPTH
MIN_SLOPE            0
ALLOW_PONDING        NO
SKIP_STEADY_STATE    NO

START_DATE           05/22/2022
START_TIME           00:00:00
REPORT_START_DATE    05/22/2022
REPORT_START_TIME    00:00:00
END_DATE             05/23/2022
END_TIME             00:00:00
SWEEP_START          01/01
SWEEP_END            12/31
DRY_DAYS             0
REPORT_STEP          00:05:00
WET_STEP             00:05:00
DRY_STEP             01:00:00
ROUTING_STEP         10
RULE_STEP            01:00:00

INERTIAL_DAMPING     PARTIAL
NORMAL_FLOW_LIMITED  BOTH
FORCE_MAIN_EQUATION  H-W
VARIABLE_STEP        0.75
LENGTHENING_STEP     0
MIN_SURFAREA         1.14
MAX_TRIALS           8
HEAD_TOLERANCE       0.0015
SYS_FLOW_TOL         5
LAT_FLOW_TOL         5
MINIMUM_STEP         0.5
THREADS              8

[EVAPORATION]
;;Data Source    Parameters
;;-------------- ----------------
CONSTANT         0.0
DRY_ONLY         NO

[RAINGAGES]
;;Name           Format    Interval SCF      Source    
;;-------------- --------- -------- -------- ----------
RG1              INTENSITY 0:05     0.00000000000 TIMESERIES p2              

[SUBCATCHMENTS]
;;Name           Rain Gage        Outlet           Area     %Imperv  Width    %Slope   CurbLen  SnowPack        
;;-------------- ---------------- ---------------- -------- -------- -------- -------- -------- ----------------
S0               RG1              060209-24420406-000075 0.23250717700 66.60721794770 53.83500000000 0.52000000000 0.00000000000                 
S1               RG1              060209-28421116-000011 1.34443220634 72.79317482320 222.32300000000 0.61800000000 0.00000000000                 
S10              RG1              Node_3311        9.40637168703 75.04092338440 631.84400000000 1.80400000000 0.00000000000                 
S100             RG1              060209-32461714-000005 0.64905103744 82.57535729230 66.14900000000 4.44400000000 0.00000000000                 
S1000            RG1              060209-28461310-000046 1.01639380646 86.09932577200 23.16400000000 3.38700000000 0.00000000000                 
S1001            RG1              060209-28461310-000045 1.57189377750 87.24284998680 57.08800000000 3.09900000000 0.00000000000                 
S1002            RG1              060209-28461310-000044 0.52739100308 76.90354951190 92.82300000000 1.77600000000 0.00000000000                 
S1003            RG1              060209-28461306-000081 0.70266704916 83.74504684090 70.34600000000 2.83100000000 0.00000000000                 
S1004            RG1              060209-28461306-000079 0.76192543330 78.65021484350 39.99800000000 4.66500000000 0.00000000000                 
S1005            RG1              060209-28461306-000078 0.97550315477 82.86556783440 33.94300000000 2.46600000000 0.00000000000                 
S1006            RG1              060209-28461306-000077 0.83406254358 81.81662820780 552.29700000000 1.83700000000 0.00000000000                 
S1007            RG1              060201-28461309-000063 0.18536142664 79.71796840820 11.70400000000 0.32000000000 0.00000000000                 
S1008            RG1              060209-28461306-000005 0.99651319336 80.68498799130 656.34400000000 2.73500000000 0.00000000000                 
S1009            RG1              060209-28461306-000004 0.66494968634 82.03562999120 15.66500000000 3.02400000000 0.00000000000                 
S101             RG1              060209-32461715-000027 0.89048341710 78.12184120510 85.26900000000 1.26800000000 0.00000000000                 
S1010            RG1              060209-28461306-000003 1.31997248557 79.27561569840 61.20000000000 1.36700000000 0.00000000000                 
S1011            RG1              060209-28461306-000002 0.84409472425 76.61703474740 45.74400000000 1.13500000000 0.00000000000                 
S1012            RG1              060201-28461302-000001 0.62931099406 80.71800895270 15.84000000000 3.28300000000 0.00000000000                 
S1013            RG1              060209-28461301-000038 0.51481211112 68.02398898230 106.67500000000 3.85100000000 0.00000000000                 
S1014            RG1              060209-28461301-000031 0.42759969407 44.75931483330 143.98700000000 1.53600000000 0.00000000000                 
S1015            RG1              060209-28461301-000015 0.33244047661 68.30399234370 37.32600000000 2.79200000000 0.00000000000                 
S1016            RG1              060201-28461301-000006 0.53739337247 58.26023173910 112.43500000000 2.10100000000 0.00000000000                 
S1017            RG1              060201-28461301-000004 0.48736122281 55.50775487150 273.37600000000 0.48700000000 0.00000000000                 
S1018            RG1              060201-28461301-000002 2.78699904108 75.64380995500 319.49200000000 5.64500000000 0.00000000000                 
S1019            RG1              060209-28421608-000156 0.09582613019 87.50587015790 3.19420433959 0.63700000000 0.00000000000                 
S102             RG1              060201-32461715-000001 1.55927139201 66.84183069750 836.52300000000 1.72300000000 0.00000000000                 
S1020            RG1              060201-28461301-000001 0.88632246275 80.48888936190 175.08100000000 0.61500000000 0.00000000000                 
S1021            RG1              060201-28421608-000015 0.10570027400 81.61303120730 13.04200000000 0.45600000000 0.00000000000                 
S1022            RG1              060201-28421608-000014 0.17486931297 57.76769928340 15.86100000000 0.48800000000 0.00000000000                 
S1023            RG1              060201-28421608-000012 0.32045179692 66.71642524130 40.92500000000 0.65600000000 0.00000000000                 
S1024            RG1              060201-28421608-000010 0.16718994854 69.44441287940 113.61600000000 0.56200000000 0.00000000000                 
S1025            RG1              060201-28421608-000005 0.16581923257 42.26585830160 21.99400000000 0.21200000000 0.00000000000                 
S1026            RG1              060201-28421604-000012 0.22229781064 46.20738338230 171.31300000000 0.61300000000 0.00000000000                 
S1027            RG1              060201-28421604-000006 0.73002011234 35.14571614490 107.02600000000 1.13600000000 0.00000000000                 
S1028            RG1              060209-28421608-000189 0.38711446005 74.47881322430 69.03500000000 0.60500000000 0.00000000000                 
S1029            RG1              060209-28421608-000165 0.64642454385 62.40002902290 156.70800000000 0.68200000000 0.00000000000                 
S103             RG1              060201-28460103-000052 0.22018123499 59.68215020600 54.90200000000 4.62700000000 0.00000000000                 
S1030            RG1              060209-28421608-000155 0.05521535193 75.55426906320 12.17600000000 0.35600000000 0.00000000000                 
S1031            RG1              060209-28421608-000152 0.24518781889 79.71981137950 239.82100000000 0.33200000000 0.00000000000                 
S1032            RG1              060209-28421608-000136 0.18854593895 75.74207728530 79.31100000000 0.83100000000 0.00000000000                 
S1033            RG1              060209-28421604-000067 0.59388678401 79.72541881660 116.49900000000 0.74000000000 0.00000000000                 
S1034            RG1              060209-28421604-000039 0.63798804403 85.01650804550 88.48200000000 1.03000000000 0.00000000000                 
S1035            RG1              060201-28421604-000009 0.40255404085 80.26965706660 264.07700000000 1.08700000000 0.00000000000                 
S1036            RG1              060209-28421607-000236 0.26178928320 89.88186634040 895.03700000000 0.28600000000 0.00000000000                 
S1037            RG1              060209-28421607-000213 0.63819968880 81.73236476070 123.73500000000 0.98600000000 0.00000000000                 
S1038            RG1              060209-28421607-000123 0.34247950648 90.00000000000 11.41598354940 1.22900000000 0.00000000000                 
S1039            RG1              060209-28421607-000093 0.43036556688 90.00000000000 34.09400000000 0.79500000000 0.00000000000                 
S104             RG1              060209-28460102-000004 0.92538212254 71.73191710940 96.46700000000 8.18200000000 0.00000000000                 
S1040            RG1              060209-28421603-000089 0.65493038415 85.03148746220 32.65800000000 0.83400000000 0.00000000000                 
S1041            RG1              060209-28421603-000060 0.80197499552 84.32547391440 58.09900000000 0.58400000000 0.00000000000                 
S1042            RG1              060209-28421603-000010 0.75652142272 82.46841584430 451.60900000000 1.01500000000 0.00000000000                 
S1043            RG1              060201-28421607-000081 0.35811191245 89.05412750630 53.22900000000 0.86700000000 0.00000000000                 
S1044            RG1              060209-28421508-000016 0.65415273323 68.92956015380 326.00900000000 0.20300000000 0.00000000000                 
S1045            RG1              060209-28421508-000015 0.79836450352 69.67518478960 78.94800000000 0.19000000000 0.00000000000                 
S1046            RG1              060209-28421504-000059 1.20499034623 82.65332512520 922.90500000000 0.47900000000 0.00000000000                 
S1047            RG1              060209-28421504-000055 0.45844891897 84.82707048840 20.52300000000 0.40800000000 0.00000000000                 
S1048            RG1              060209-28421504-000048 0.47172009095 85.20408392390 54.48000000000 0.66500000000 0.00000000000                 
S1049            RG1              060209-28421505-000142 0.29709029553 83.96495567480 77.35500000000 0.54900000000 0.00000000000                 
S105             RG1              060209-28420404-000006 1.70151047978 67.95552456850 275.78700000000 2.07000000000 0.00000000000                 
S1050            RG1              060209-28421505-000133 0.13801041466 87.18230146770 50.87800000000 0.74500000000 0.00000000000                 
S1051            RG1              060209-28421501-000062 0.76328589673 70.56505803340 43.96900000000 0.46300000000 0.00000000000                 
S1052            RG1              060209-28421501-000018 0.62993923098 79.25371898590 51.77600000000 0.74600000000 0.00000000000                 
S1053            RG1              060209-28421501-000017 0.97171763429 78.01120611300 70.33600000000 0.42000000000 0.00000000000                 
S1054            RG1              060209-28421408-000056 0.61155565019 79.24179447940 100.46800000000 0.45800000000 0.00000000000                 
S1055            RG1              060201-28421505-000020 0.16370269429 87.68259308670 71.52600000000 0.10100000000 0.00000000000                 
S1056            RG1              060209-28421408-000061 1.25813284285 73.14327921790 746.89200000000 0.63800000000 0.00000000000                 
S1057            RG1              060209-28421408-000059 0.92666456517 78.28047352070 321.60300000000 0.62700000000 0.00000000000                 
S1058            RG1              060209-28421408-000058 0.94614148987 81.05316551320 97.94400000000 0.51000000000 0.00000000000                 
S1059            RG1              060209-28421408-000057 0.64328948291 81.99022990430 85.98800000000 0.64700000000 0.00000000000                 
S106             RG1              060209-28420401-000084 0.96494973839 53.34378507020 91.69400000000 2.89100000000 0.00000000000                 
S1060            RG1              060209-28421407-000057 1.54663312847 81.36372319140 143.86200000000 0.83700000000 0.00000000000                 
S1061            RG1              060209-28421407-000061 1.10844819476 81.43683694840 61.12000000000 0.56200000000 0.00000000000                 
S1062            RG1              060209-28421407-000059 1.34391545566 78.42655942000 75.62000000000 0.58800000000 0.00000000000                 
S1063            RG1              060209-28421407-000012 0.32695836926 83.54546939800 10.89861230860 0.42200000000 0.00000000000                 
S1064            RG1              060209-28421407-000006 2.34050086251 79.99145512950 95.93700000000 0.76700000000 0.00000000000                 
S1065            RG1              060201-28421407-000039 1.73256044695 81.27576438650 54.14900000000 0.59400000000 0.00000000000                 
S1066            RG1              060209-28421407-000015 0.47619159878 83.61907877780 164.29100000000 0.55700000000 0.00000000000                 
S1067            RG1              060209-28421406-000052 0.79169699521 71.71777041280 17.13600000000 0.00000000000 0.00000000000                 
S1068            RG1              060209-28421406-000051 3.10505572582 85.13385913030 68.22200000000 1.03500000000 0.00000000000                 
S1069            RG1              060209-28421406-000050 0.05510948193 55.34489700550 24.77200000000 0.62300000000 0.00000000000                 
S107             RG1              060209-28420301-000049 0.36323649445 80.60942918060 30.54200000000 1.99200000000 0.00000000000                 
S1070            RG1              060209-28421406-000049 3.29263688442 86.27588628570 178.79800000000 0.79200000000 0.00000000000                 
S1071            RG1              060209-28421406-000021 0.07740193506 70.88203038400 22.88400000000 0.00000000000 0.00000000000                 
S1072            RG1              060209-28421406-000005 0.48253350168 81.92846683850 96.49400000000 0.23800000000 0.00000000000                 
S1073            RG1              060209-28421406-000004 0.47363335669 87.05038218120 38.52600000000 0.32800000000 0.00000000000                 
S1074            RG1              060209-28421406-000003 0.15370815027 85.16329065000 68.00400000000 0.70400000000 0.00000000000                 
S1075            RG1              060209-28421406-000002 0.31641715651 85.42247508410 81.99500000000 0.78600000000 0.00000000000                 
S1076            RG1              060209-28421406-000001 0.12585931681 76.56015054630 24.26200000000 0.00000000000 0.00000000000                 
S1077            RG1              060209-28421402-000114 0.31441866224 85.30490422320 25.12500000000 0.44500000000 0.00000000000                 
S1078            RG1              060209-28421402-000088 0.43889781065 88.46077290910 27.68400000000 0.49500000000 0.00000000000                 
S1079            RG1              060209-28421402-000086 0.27077070178 85.09127085490 47.31800000000 0.54400000000 0.00000000000                 
S108             RG1              060209-28420202-000003 1.12030362634 84.95886312270 4370.89300000000 1.83300000000 0.00000000000                 
S1080            RG1              060209-28421402-000039 0.49358607480 86.55372189910 16.45286916000 0.72900000000 0.00000000000                 
S1081            RG1              060201-28421407-000024 0.26058924824 86.10740790450 34.09700000000 0.84300000000 0.00000000000                 
S1082            RG1              060209-28421402-000151 0.43758111162 89.20817749020 64.44400000000 0.38800000000 0.00000000000                 
S1083            RG1              060209-28421402-000096 0.11018453852 76.35750000000 20.35500000000 0.00000000000 0.00000000000                 
S1084            RG1              060209-28421402-000090 0.83504526316 83.00413732880 72.34100000000 0.76900000000 0.00000000000                 
S1085            RG1              060209-28421501-000061 1.37617849916 86.85808810050 78.54000000000 0.90600000000 0.00000000000                 
S1086            RG1              060209-28421501-000016 1.17177117309 86.84048369890 26.64600000000 0.85100000000 0.00000000000                 
S1087            RG1              060209-28421501-000015 1.17651767754 86.86521219320 39.21725591800 0.63000000000 0.00000000000                 
S1088            RG1              060209-28421113-000110 1.29669538851 85.92559024220 56.96800000000 0.55500000000 0.00000000000                 
S1089            RG1              060209-28421113-000103 1.04954409725 85.66796229490 58.46500000000 0.61400000000 0.00000000000                 
S109             RG1              060209-28420207-000014 0.88934842709 88.73794688220 135.76400000000 1.74500000000 0.00000000000                 
S1090            RG1              060209-28421113-000007 1.19813817020 74.81976347650 46.37600000000 0.52400000000 0.00000000000                 
S1091            RG1              060209-28421113-000006 1.08788574845 76.18360175720 548.25800000000 0.85300000000 0.00000000000                 
S1092            RG1              060209-28421504-000060 0.98562277031 80.22866642170 66.28600000000 0.55100000000 0.00000000000                 
S1093            RG1              060209-28421504-000032 0.30477682443 86.80760518640 24.03000000000 0.33800000000 0.00000000000                 
S1094            RG1              060209-28421116-000034 3.09468615435 76.54232142210 243.18100000000 1.59700000000 0.00000000000                 
S1095            RG1              060201-28421504-000019 0.25769715792 89.95308805230 29.42900000000 0.62400000000 0.00000000000                 
S1096            RG1              Node_3258        0.89823706975 69.74394898210 160.37300000000 0.29300000000 0.00000000000                 
S1097            RG1              Node_3257        5.20194037805 88.26112121390 373.34000000000 0.68700000000 0.00000000000                 
S1098            RG1              060209-28421213-000032 0.80565755059 89.22719587980 66.32500000000 0.93500000000 0.00000000000                 
S1099            RG1              060209-28421213-000031 0.66962972957 87.92701464950 446.53600000000 1.31100000000 0.00000000000                 
S11              RG1              060209-24420308-000062 0.25622197921 69.52538101440 48.70600000000 0.37800000000 0.00000000000                 
S110             RG1              060209-28420208-000014 4.19457106941 89.73071995450 630.81600000000 2.28200000000 0.00000000000                 
S1100            RG1              060209-28421213-000025 1.23176477945 89.54102461290 66.78600000000 1.18800000000 0.00000000000                 
S1101            RG1              060209-28421603-000125 0.66401456552 87.19986997940 57.53700000000 0.92700000000 0.00000000000                 
S1102            RG1              060209-28421603-000002 0.95897353167 88.21368550600 77.34300000000 0.67700000000 0.00000000000                 
S1103            RG1              060209-28421603-000001 0.57955003245 90.00000000000 50.03800000000 0.89000000000 0.00000000000                 
S1104            RG1              060209-28421215-000063 1.19165249398 89.38478333670 37.27400000000 1.18400000000 0.00000000000                 
S1105            RG1              060209-28421215-000043 0.36273813080 90.00000000000 210.89900000000 1.26900000000 0.00000000000                 
S1106            RG1              060209-28421215-000017 0.94746864100 89.89692803940 115.01300000000 1.44300000000 0.00000000000                 
S1107            RG1              060201-28421603-000044 0.49053177580 87.55947055380 294.38600000000 0.52400000000 0.00000000000                 
S1108            RG1              060209-28421604-000125 0.21344406341 80.20987778130 79.68500000000 1.91400000000 0.00000000000                 
S1109            RG1              060209-28421604-000106 0.28553722267 80.21452624650 35.40400000000 0.53600000000 0.00000000000                 
S111             RG1              060209-28420305-000059 1.53398022029 87.59458728790 218.13800000000 3.81000000000 0.00000000000                 
S1110            RG1              060209-28421604-000085 0.55986251773 77.10327637950 92.79600000000 0.75900000000 0.00000000000                 
S1111            RG1              060209-28421216-000182 0.47719879679 64.23951579840 124.17500000000 0.67300000000 0.00000000000                 
S1112            RG1              060209-28421216-000165 0.15992847857 51.86378632920 58.93900000000 0.45100000000 0.00000000000                 
S1113            RG1              060209-28421216-000118 0.20675457386 84.41458305040 45.28100000000 0.57400000000 0.00000000000                 
S1114            RG1              060209-28421216-000077 0.39324382629 66.43156637790 168.04100000000 2.23700000000 0.00000000000                 
S1115            RG1              060209-28421216-000074 0.14913964581 80.33577792780 76.95000000000 0.34000000000 0.00000000000                 
S1116            RG1              060209-28421216-000059 0.10544758699 81.39522211320 34.53400000000 0.65300000000 0.00000000000                 
S1117            RG1              060209-28421216-000037 0.09429136787 84.94794576470 15.09200000000 0.00000000000 0.00000000000                 
S1118            RG1              060209-28421216-000027 0.23388556167 72.75016339370 59.42600000000 1.31200000000 0.00000000000                 
S1119            RG1              060201-28421604-000004 0.17432428806 67.93589556460 38.03400000000 0.85700000000 0.00000000000                 
S112             RG1              060209-28420305-000005 0.24268045809 88.28073770520 24.49000000000 4.06900000000 0.00000000000                 
S1120            RG1              060209-28460913-000040 0.34039110207 72.45203043970 44.80000000000 1.34200000000 0.00000000000                 
S1121            RG1              060209-28421216-000035 0.21766790491 49.81457006680 29.32900000000 0.59800000000 0.00000000000                 
S1122            RG1              060201-28421604-000010 0.98334109000 61.26334645430 175.65900000000 2.16000000000 0.00000000000                 
S1123            RG1              060201-28421604-000007 0.25496673187 72.32303895680 144.71500000000 2.02900000000 0.00000000000                 
S1124            RG1              060201-28421216-000019 0.38369396625 77.10074293930 138.96300000000 3.47300000000 0.00000000000                 
S1125            RG1              060201-28421216-000013 0.14457629743 79.20943798250 17.37300000000 1.70700000000 0.00000000000                 
S1126            RG1              060201-28421216-000003 0.36880485736 55.60952150770 49.27300000000 4.96800000000 0.00000000000                 
S1127            RG1              060201-28421216-000002 0.40486571122 69.78931133160 92.58800000000 1.27100000000 0.00000000000                 
S1128            RG1              060209-28460913-000128 0.15427681475 73.62393875810 36.50200000000 1.03500000000 0.00000000000                 
S1129            RG1              060209-28460913-000096 0.15870342921 84.17519286080 33.83500000000 1.15200000000 0.00000000000                 
S113             RG1              060209-28420306-000061 0.06045080469 88.92095508600 79.40800000000 1.86300000000 0.00000000000                 
S1130            RG1              060201-28460913-000013 0.28846596764 59.03235231150 54.15800000000 1.44600000000 0.00000000000                 
S1131            RG1              060201-28460913-000012 0.15217421539 81.95355143720 10.47800000000 1.08700000000 0.00000000000                 
S1132            RG1              060201-28460913-000011 0.13045730369 74.61337312880 94.85600000000 4.78100000000 0.00000000000                 
S1133            RG1              060201-28460913-000006 0.22972137161 73.63106279400 34.90800000000 1.81200000000 0.00000000000                 
S1134            RG1              060201-28460913-000003 0.13363985233 62.32793655620 107.30600000000 0.20900000000 0.00000000000                 
S1135            RG1              060209-28460914-000002 1.06361556305 64.97097431090 48.86500000000 3.21000000000 0.00000000000                 
S1136            RG1              060209-28460914-000001 0.89370834757 65.46333367240 24.46700000000 3.86800000000 0.00000000000                 
S1137            RG1              060209-28460913-000167 0.48688140847 72.90208941060 281.93600000000 5.82400000000 0.00000000000                 
S1138            RG1              060209-28460913-000163 0.92371608011 81.37757356870 251.59800000000 5.20300000000 0.00000000000                 
S1139            RG1              060209-28460909-000091 2.71025481182 69.15517656260 520.10100000000 6.54300000000 0.00000000000                 
S114             RG1              060209-28420307-000029 0.38253439340 66.40987432880 110.50600000000 2.26700000000 0.00000000000                 
S1140            RG1              060209-28460909-000051 0.28512037233 73.74135823020 23.59700000000 3.38400000000 0.00000000000                 
S1141            RG1              060209-28460909-000031 0.09977306547 75.93605187100 14.73000000000 1.74200000000 0.00000000000                 
S1142            RG1              060201-28460913-000009 0.56849860601 74.55037029170 696.04100000000 1.94400000000 0.00000000000                 
S1143            RG1              060201-28460913-000008 0.45567347611 67.69224736850 45.62400000000 1.09300000000 0.00000000000                 
S1144            RG1              060201-28460913-000005 0.57729272540 69.76301889850 119.11900000000 1.36200000000 0.00000000000                 
S1145            RG1              060201-28460913-000004 0.19698716547 72.42974621800 31.07200000000 0.94500000000 0.00000000000                 
S1146            RG1              060201-28460909-000004 0.34895764597 82.41819636360 46.66000000000 2.28400000000 0.00000000000                 
S1147            RG1              060201-28460909-000001 0.31947885140 80.11127070590 44.03400000000 4.07800000000 0.00000000000                 
S1148            RG1              060209-28421216-000328 0.22536653028 79.95217853360 15.13400000000 5.56700000000 0.00000000000                 
S1149            RG1              060209-28421216-000303 0.03970399741 66.62450539980 23.15900000000 0.68300000000 0.00000000000                 
S115             RG1              060201-28420307-000005 0.96149137408 70.65058541430 138.28200000000 4.91100000000 0.00000000000                 
S1150            RG1              060209-28421216-000301 0.03760330182 64.77122081590 23.56400000000 0.40500000000 0.00000000000                 
S1151            RG1              060209-28421216-000300 0.08182559127 77.45507998520 20.20000000000 0.51600000000 0.00000000000                 
S1152            RG1              060209-28421216-000298 0.31763976420 78.57719550500 108.25000000000 2.06800000000 0.00000000000                 
S1153            RG1              060209-28421216-000297 0.01543334670 72.84532563790 9.87300000000 1.08100000000 0.00000000000                 
S1154            RG1              060209-28421216-000285 0.03323759689 59.22405925360 16.87000000000 0.78700000000 0.00000000000                 
S1155            RG1              060209-28421216-000245 0.10762612369 67.85498870290 54.58700000000 0.62700000000 0.00000000000                 
S1156            RG1              060209-28421216-000226 0.27556823719 57.27634114530 20.84500000000 1.06000000000 0.00000000000                 
S1157            RG1              060209-28421216-000203 0.13599330508 68.21073231710 58.44700000000 0.53300000000 0.00000000000                 
S1158            RG1              060209-28421215-000177 0.20806007591 81.16345391470 108.44400000000 0.63300000000 0.00000000000                 
S1159            RG1              060209-28421215-000175 0.81038417525 88.11212326880 225.97600000000 1.84500000000 0.00000000000                 
S116             RG1              060201-28420308-000005 1.85721155762 53.88700949510 304.92600000000 6.70000000000 0.00000000000                 
S1160            RG1              060209-28421215-000141 0.11045183996 80.26920224230 22.20000000000 0.52000000000 0.00000000000                 
S1161            RG1              060209-28421215-000131 0.30128039456 68.44619077980 114.85900000000 0.27500000000 0.00000000000                 
S1162            RG1              060209-28421215-000129 0.30884954901 74.95106775830 71.04000000000 0.50000000000 0.00000000000                 
S1163            RG1              060209-28421212-000077 0.07620539984 81.81606487700 13.50000000000 7.31400000000 0.00000000000                 
S1164            RG1              060209-28421212-000060 0.25585172246 85.23469413160 61.53900000000 4.03800000000 0.00000000000                 
S1165            RG1              060209-28421212-000051 0.17075850992 49.56571287030 30.51200000000 1.71700000000 0.00000000000                 
S1166            RG1              060209-28421212-000041 0.14187785219 87.35085170150 37.82100000000 0.87400000000 0.00000000000                 
S1167            RG1              060209-28421212-000031 0.18655194103 77.51885813860 46.86600000000 3.23000000000 0.00000000000                 
S1168            RG1              060209-28421212-000024 0.07896177248 84.95360146000 63.63800000000 3.05600000000 0.00000000000                 
S1169            RG1              060201-28421216-000011 0.19351318585 74.53488128280 25.04500000000 1.76800000000 0.00000000000                 
S117             RG1              060201-28420401-000041 1.88384044063 69.74680370930 394.54500000000 10.42400000000 0.00000000000                 
S1170            RG1              060201-28421216-000009 0.02414121882 84.49569093360 14.43700000000 1.08100000000 0.00000000000                 
S1171            RG1              060201-28421216-000004 0.23165213004 74.12538890380 76.88000000000 2.92900000000 0.00000000000                 